
*** ChampSim Multicore Out-of-Order Simulator ***

Warmup Instructions: 1000000
Simulation Instructions: 10000000
Number of CPUs: 1
LLC sets: 2048
LLC ways: 16
Off-chip DRAM Size: 4096 MB Channels: 1 Width: 64-bit Data Rate: 3200 MT/s

CPU 0 runs /home/lord/Documents/lab/cs232/proj/ChampSim/dp3_traces/cadical-low-60K-1186B.champsimtrace.xz
LLC Next Line Prefetcher
